LTspice 24.0.11 for Windows
Circuit: * D:\eightbitalumajorproject\AluCmos\Dec3to8CMOS.asc
Start Time: Fri Apr 26 15:08:42 2024
solver = Normal
Maximum thread count: 8
tnom = 27
temp = 27
method = modified trap
Instance "m:x1:x1:x1:1": Length shorter than recommended for a level 1 MOSFET.
Instance "m:x1:x1:x1:1": Width narrower than recommended for a level 1 MOSFET.
Instance "m:x1:x1:x1:2": Length shorter than recommended for a level 1 MOSFET.
Instance "m:x1:x1:x1:2": Width narrower than recommended for a level 1 MOSFET.
Instance "m:x1:x1:x2:2": Length shorter than recommended for a level 1 MOSFET.
Instance "m:x1:x1:x2:2": Width narrower than recommended for a level 1 MOSFET.
Instance "m:x1:x2:x1:1": Length shorter than recommended for a level 1 MOSFET.
Instance "m:x1:x2:x1:1": Width narrower than recommended for a level 1 MOSFET.
Instance "m:x1:x2:x1:2": Length shorter than recommended for a level 1 MOSFET.
Instance "m:x1:x2:x1:2": Width narrower than recommended for a level 1 MOSFET.
Instance "m:x1:x2:x2:2": Length shorter than recommended for a level 1 MOSFET.
Instance "m:x1:x2:x2:2": Width narrower than recommended for a level 1 MOSFET.
Instance "m:x1:x3:x1:1": Length shorter than recommended for a level 1 MOSFET.
Instance "m:x1:x3:x1:1": Width narrower than recommended for a level 1 MOSFET.
Instance "m:x1:x3:x1:2": Length shorter than recommended for a level 1 MOSFET.
Instance "m:x1:x3:x1:2": Width narrower than recommended for a level 1 MOSFET.
Instance "m:x1:x3:x2:2": Length shorter than recommended for a level 1 MOSFET.
Instance "m:x1:x3:x2:2": Width narrower than recommended for a level 1 MOSFET.
Instance "m:x1:x4:x1:1": Length shorter than recommended for a level 1 MOSFET.
Instance "m:x1:x4:x1:1": Width narrower than recommended for a level 1 MOSFET.
Instance "m:x1:x4:x1:2": Length shorter than recommended for a level 1 MOSFET.
Instance "m:x1:x4:x1:2": Width narrower than recommended for a level 1 MOSFET.
Instance "m:x1:x4:x2:2": Length shorter than recommended for a level 1 MOSFET.
Instance "m:x1:x4:x2:2": Width narrower than recommended for a level 1 MOSFET.
Instance "m:x1:x5:2": Length shorter than recommended for a level 1 MOSFET.
Instance "m:x1:x5:2": Width narrower than recommended for a level 1 MOSFET.
Instance "m:x1:x6:2": Length shorter than recommended for a level 1 MOSFET.
Instance "m:x1:x6:2": Width narrower than recommended for a level 1 MOSFET.
Instance "m:x2:x1:x1:1": Length shorter than recommended for a level 1 MOSFET.
Instance "m:x2:x1:x1:1": Width narrower than recommended for a level 1 MOSFET.
Instance "m:x2:x1:x1:2": Length shorter than recommended for a level 1 MOSFET.
Instance "m:x2:x1:x1:2": Width narrower than recommended for a level 1 MOSFET.
Instance "m:x2:x1:x2:2": Length shorter than recommended for a level 1 MOSFET.
Instance "m:x2:x1:x2:2": Width narrower than recommended for a level 1 MOSFET.
Instance "m:x2:x2:x1:1": Length shorter than recommended for a level 1 MOSFET.
Instance "m:x2:x2:x1:1": Width narrower than recommended for a level 1 MOSFET.
Instance "m:x2:x2:x1:2": Length shorter than recommended for a level 1 MOSFET.
Instance "m:x2:x2:x1:2": Width narrower than recommended for a level 1 MOSFET.
Instance "m:x2:x2:x2:2": Length shorter than recommended for a level 1 MOSFET.
Instance "m:x2:x2:x2:2": Width narrower than recommended for a level 1 MOSFET.
Instance "m:x2:x3:x1:1": Length shorter than recommended for a level 1 MOSFET.
Instance "m:x2:x3:x1:1": Width narrower than recommended for a level 1 MOSFET.
Instance "m:x2:x3:x1:2": Length shorter than recommended for a level 1 MOSFET.
Instance "m:x2:x3:x1:2": Width narrower than recommended for a level 1 MOSFET.
Instance "m:x2:x3:x2:2": Length shorter than recommended for a level 1 MOSFET.
Instance "m:x2:x3:x2:2": Width narrower than recommended for a level 1 MOSFET.
Instance "m:x2:x4:x1:1": Length shorter than recommended for a level 1 MOSFET.
Instance "m:x2:x4:x1:1": Width narrower than recommended for a level 1 MOSFET.
Instance "m:x2:x4:x1:2": Length shorter than recommended for a level 1 MOSFET.
Instance "m:x2:x4:x1:2": Width narrower than recommended for a level 1 MOSFET.
Instance "m:x2:x4:x2:2": Length shorter than recommended for a level 1 MOSFET.
Instance "m:x2:x4:x2:2": Width narrower than recommended for a level 1 MOSFET.
Instance "m:x2:x5:2": Length shorter than recommended for a level 1 MOSFET.
Instance "m:x2:x5:2": Width narrower than recommended for a level 1 MOSFET.
Instance "m:x2:x6:2": Length shorter than recommended for a level 1 MOSFET.
Instance "m:x2:x6:2": Width narrower than recommended for a level 1 MOSFET.
Instance "m:x3:2": Length shorter than recommended for a level 1 MOSFET.
Instance "m:x3:2": Width narrower than recommended for a level 1 MOSFET.
Instance "m:x1:x1:x1:3": Length shorter than recommended for a level 1 MOSFET.
Instance "m:x1:x1:x1:3": Width narrower than recommended for a level 1 MOSFET.
Instance "m:x1:x1:x1:4": Length shorter than recommended for a level 1 MOSFET.
Instance "m:x1:x1:x1:4": Width narrower than recommended for a level 1 MOSFET.
Instance "m:x1:x1:x2:1": Length shorter than recommended for a level 1 MOSFET.
Instance "m:x1:x1:x2:1": Width narrower than recommended for a level 1 MOSFET.
Instance "m:x1:x2:x1:3": Length shorter than recommended for a level 1 MOSFET.
Instance "m:x1:x2:x1:3": Width narrower than recommended for a level 1 MOSFET.
Instance "m:x1:x2:x1:4": Length shorter than recommended for a level 1 MOSFET.
Instance "m:x1:x2:x1:4": Width narrower than recommended for a level 1 MOSFET.
Instance "m:x1:x2:x2:1": Length shorter than recommended for a level 1 MOSFET.
Instance "m:x1:x2:x2:1": Width narrower than recommended for a level 1 MOSFET.
Instance "m:x1:x3:x1:3": Length shorter than recommended for a level 1 MOSFET.
Instance "m:x1:x3:x1:3": Width narrower than recommended for a level 1 MOSFET.
Instance "m:x1:x3:x1:4": Length shorter than recommended for a level 1 MOSFET.
Instance "m:x1:x3:x1:4": Width narrower than recommended for a level 1 MOSFET.
Instance "m:x1:x3:x2:1": Length shorter than recommended for a level 1 MOSFET.
Instance "m:x1:x3:x2:1": Width narrower than recommended for a level 1 MOSFET.
Instance "m:x1:x4:x1:3": Length shorter than recommended for a level 1 MOSFET.
Instance "m:x1:x4:x1:3": Width narrower than recommended for a level 1 MOSFET.
Instance "m:x1:x4:x1:4": Length shorter than recommended for a level 1 MOSFET.
Instance "m:x1:x4:x1:4": Width narrower than recommended for a level 1 MOSFET.
Instance "m:x1:x4:x2:1": Length shorter than recommended for a level 1 MOSFET.
Instance "m:x1:x4:x2:1": Width narrower than recommended for a level 1 MOSFET.
Instance "m:x1:x5:1": Length shorter than recommended for a level 1 MOSFET.
Instance "m:x1:x5:1": Width narrower than recommended for a level 1 MOSFET.
Instance "m:x1:x6:1": Length shorter than recommended for a level 1 MOSFET.
Instance "m:x1:x6:1": Width narrower than recommended for a level 1 MOSFET.
Instance "m:x2:x1:x1:3": Length shorter than recommended for a level 1 MOSFET.
Instance "m:x2:x1:x1:3": Width narrower than recommended for a level 1 MOSFET.
Instance "m:x2:x1:x1:4": Length shorter than recommended for a level 1 MOSFET.
Instance "m:x2:x1:x1:4": Width narrower than recommended for a level 1 MOSFET.
Instance "m:x2:x1:x2:1": Length shorter than recommended for a level 1 MOSFET.
Instance "m:x2:x1:x2:1": Width narrower than recommended for a level 1 MOSFET.
Instance "m:x2:x2:x1:3": Length shorter than recommended for a level 1 MOSFET.
Instance "m:x2:x2:x1:3": Width narrower than recommended for a level 1 MOSFET.
Instance "m:x2:x2:x1:4": Length shorter than recommended for a level 1 MOSFET.
Instance "m:x2:x2:x1:4": Width narrower than recommended for a level 1 MOSFET.
Instance "m:x2:x2:x2:1": Length shorter than recommended for a level 1 MOSFET.
Instance "m:x2:x2:x2:1": Width narrower than recommended for a level 1 MOSFET.
Instance "m:x2:x3:x1:3": Length shorter than recommended for a level 1 MOSFET.
Instance "m:x2:x3:x1:3": Width narrower than recommended for a level 1 MOSFET.
Instance "m:x2:x3:x1:4": Length shorter than recommended for a level 1 MOSFET.
Instance "m:x2:x3:x1:4": Width narrower than recommended for a level 1 MOSFET.
Instance "m:x2:x3:x2:1": Length shorter than recommended for a level 1 MOSFET.
Instance "m:x2:x3:x2:1": Width narrower than recommended for a level 1 MOSFET.
Instance "m:x2:x4:x1:3": Length shorter than recommended for a level 1 MOSFET.
Instance "m:x2:x4:x1:3": Width narrower than recommended for a level 1 MOSFET.
Instance "m:x2:x4:x1:4": Length shorter than recommended for a level 1 MOSFET.
Instance "m:x2:x4:x1:4": Width narrower than recommended for a level 1 MOSFET.
Instance "m:x2:x4:x2:1": Length shorter than recommended for a level 1 MOSFET.
Instance "m:x2:x4:x2:1": Width narrower than recommended for a level 1 MOSFET.
Instance "m:x2:x5:1": Length shorter than recommended for a level 1 MOSFET.
Instance "m:x2:x5:1": Width narrower than recommended for a level 1 MOSFET.
Instance "m:x2:x6:1": Length shorter than recommended for a level 1 MOSFET.
Instance "m:x2:x6:1": Width narrower than recommended for a level 1 MOSFET.
Instance "m:x3:1": Length shorter than recommended for a level 1 MOSFET.
Instance "m:x3:1": Width narrower than recommended for a level 1 MOSFET.
Direct Newton iteration for .op point succeeded.
Changing Tseed to 5e-10
Changing Tseed to 5e-12
Changing Tseed to 5e-09
Changing Tseed to 5e-13
Heightened Def Con from 1.84991e-09 +++++++++++++++++to 1.97491e-09
Heightened Def Con from 2.50137e-09 ++++++++++++++++to 2.51699e-09
Heightened Def Con from 2.51699e-09 ++++++++++++to 2.64199e-09
Heightened Def Con from 0.025 to 0.025
Heightened Def Con from 0.025 to 0.025
Heightened Def Con from 0.025 +to 0.025
Heightened Def Con from 0.025 +to 0.025
Heightened Def Con from 0.025 +to 0.025
Heightened Def Con from 0.025 +to 0.025
Heightened Def Con from 0.025 ++to 0.025
Heightened Def Con from 0.025 ++to 0.025
Heightened Def Con from 0.025 ++to 0.025
Heightened Def Con from 0.025 ++to 0.025
Heightened Def Con from 0.025 ++to 0.025
Heightened Def Con from 0.025 ++to 0.025
Heightened Def Con from 0.025 ++to 0.025
Heightened Def Con from 0.025 ++to 0.025
Heightened Def Con from 0.025 ++to 0.025
Heightened Def Con from 0.025 ++to 0.025
Heightened Def Con from 0.025 +++to 0.025
Heightened Def Con from 0.025 +++to 0.025
Heightened Def Con from 0.025 +++to 0.025
Heightened Def Con from 0.025 +++to 0.025
Heightened Def Con from 0.025 +++to 0.025
Heightened Def Con from 0.025 +++to 0.025
Heightened Def Con from 0.025 +++to 0.025
Heightened Def Con from 0.025 +++to 0.025
Heightened Def Con from 0.025 +++to 0.025
Heightened Def Con from 0.025 +++to 0.025
Heightened Def Con from 0.025 +++to 0.025
Heightened Def Con from 0.025 ++++to 0.025
Heightened Def Con from 0.025 ++++to 0.025
Heightened Def Con from 0.025 ++++to 0.025
Heightened Def Con from 0.025 ++++to 0.025
Heightened Def Con from 0.025 ++++to 0.025
Heightened Def Con from 0.025 ++++to 0.025
Heightened Def Con from 0.025 ++++to 0.025
Heightened Def Con from 0.025 ++++to 0.025
Heightened Def Con from 0.025 ++++to 0.025
Heightened Def Con from 0.025 ++++to 0.025
Heightened Def Con from 0.025 ++++to 0.025
Heightened Def Con from 0.025 ++++to 0.025
Heightened Def Con from 0.025 ++++to 0.025
Heightened Def Con from 0.025 +++++to 0.025
Heightened Def Con from 0.025 +++++to 0.025
Heightened Def Con from 0.025 +++++to 0.025
Heightened Def Con from 0.025 +++++to 0.025
Heightened Def Con from 0.025 +++++to 0.025
Heightened Def Con from 0.025 +++++to 0.025
Heightened Def Con from 0.025 +++++to 0.025
Heightened Def Con from 0.025 +++++to 0.025
Heightened Def Con from 0.025 +++++to 0.025
Heightened Def Con from 0.025 +++++to 0.025
Heightened Def Con from 0.025 +++++to 0.025
Heightened Def Con from 0.025 +++++to 0.025
Heightened Def Con from 0.025 +++++to 0.025
Heightened Def Con from 0.025 +++++to 0.025
Heightened Def Con from 0.025 +++++to 0.025
Heightened Def Con from 0.025 +++++to 0.025
Heightened Def Con from 0.025 ++++++to 0.025
Heightened Def Con from 0.025 ++++++to 0.025
Heightened Def Con from 0.025 ++++++to 0.025
Heightened Def Con from 0.025 ++++++to 0.025
Heightened Def Con from 0.025 ++++++to 0.025
Heightened Def Con from 0.025 ++++++to 0.025
Heightened Def Con from 0.025 ++++++to 0.025
Heightened Def Con from 0.025 ++++++to 0.025
Heightened Def Con from 0.025 ++++++to 0.025
Heightened Def Con from 0.025 ++++++to 0.025
Heightened Def Con from 0.025 ++++++to 0.025
Heightened Def Con from 0.025 ++++++to 0.025
Heightened Def Con from 0.025 ++++++to 0.025
Heightened Def Con from 0.025 ++++++to 0.025
Heightened Def Con from 0.025 +++++++to 0.025
Heightened Def Con from 0.025 +++++++to 0.025
Heightened Def Con from 0.025 +++++++to 0.025
Heightened Def Con from 0.025 +++++++to 0.025
Heightened Def Con from 0.025 +++++++to 0.025
Heightened Def Con from 0.025 +++++++to 0.025
Heightened Def Con from 0.025 +++++++to 0.025
Heightened Def Con from 0.025 +++++++to 0.025
Heightened Def Con from 0.025 +++++++to 0.025
Heightened Def Con from 0.025 +++++++to 0.025
Heightened Def Con from 0.025 +++++++to 0.025
Heightened Def Con from 0.025 +++++++to 0.025
Heightened Def Con from 0.025 +++++++to 0.025
Heightened Def Con from 0.025 +++++++to 0.025
Heightened Def Con from 0.025 +++++++to 0.025
Heightened Def Con from 0.025 +++++++to 0.025
Heightened Def Con from 0.025 +++++++to 0.025
Heightened Def Con from 0.025 +++++++to 0.025
Heightened Def Con from 0.025 ++++++++to 0.025
Heightened Def Con from 0.025 ++++++++to 0.025
Heightened Def Con from 0.025 ++++++++to 0.025
Heightened Def Con from 0.025 ++++++++to 0.025
Heightened Def Con from 0.025 ++++++++to 0.025
Heightened Def Con from 0.025 ++++++++to 0.025
Heightened Def Con from 0.025 ++++++++to 0.025
Heightened Def Con from 0.025 ++++++++to 0.025
Heightened Def Con from 0.025 ++++++++to 0.025
Heightened Def Con from 0.025 ++++++++to 0.025
Heightened Def Con from 0.025 ++++++++to 0.025
Heightened Def Con from 0.025 ++++++++to 0.025
Heightened Def Con from 0.025 ++++++++to 0.025
Heightened Def Con from 0.025 ++++++++to 0.025
Heightened Def Con from 0.025 ++++++++to 0.025
Heightened Def Con from 0.025 ++++++++to 0.025
Heightened Def Con from 0.025 ++++++++to 0.025
Heightened Def Con from 0.025 ++++++++to 0.025
Heightened Def Con from 0.025 ++++++++to 0.025
Heightened Def Con from 0.025 +++++++++to 0.025
Heightened Def Con from 0.025 +++++++++to 0.025
Heightened Def Con from 0.025 +++++++++to 0.025
Heightened Def Con from 0.025 +++++++++to 0.025
Heightened Def Con from 0.025 +++++++++to 0.025
Heightened Def Con from 0.025 +++++++++to 0.025
Heightened Def Con from 0.025 +++++++++to 0.025
Heightened Def Con from 0.025 +++++++++to 0.025
Heightened Def Con from 0.025 +++++++++to 0.025
Heightened Def Con from 0.025 +++++++++to 0.025
Heightened Def Con from 0.025 +++++++++to 0.025
Heightened Def Con from 0.025 +++++++++to 0.025
Heightened Def Con from 0.025 +++++++++to 0.025
Heightened Def Con from 0.025 +++++++++to 0.025
Heightened Def Con from 0.025 ++++++++++++++++++++to 0.025
Heightened Def Con from 0.025 +++++++++++++++++++to 0.025
Heightened Def Con from 0.03 ++++++++++++++to 0.03
Heightened Def Con from 0.03 ++++++++++to 0.03
Heightened Def Con from 0.03 to 0.03
Heightened Def Con from 0.03 to 0.03
Heightened Def Con from 0.03 to 0.03
Heightened Def Con from 0.03 to 0.03
Heightened Def Con from 0.03 +to 0.03
Heightened Def Con from 0.03 +to 0.03
Heightened Def Con from 0.03 +to 0.03
Heightened Def Con from 0.03 +to 0.03
Heightened Def Con from 0.03 +to 0.03
Heightened Def Con from 0.03 +to 0.03
Heightened Def Con from 0.03 ++to 0.03
Heightened Def Con from 0.03 ++to 0.03
Heightened Def Con from 0.03 ++to 0.03
Heightened Def Con from 0.03 ++to 0.03
Heightened Def Con from 0.03 ++to 0.03
Heightened Def Con from 0.03 ++to 0.03
Heightened Def Con from 0.03 ++to 0.03
Heightened Def Con from 0.03 ++to 0.03
Heightened Def Con from 0.03 ++to 0.03
Heightened Def Con from 0.03 ++to 0.03
Heightened Def Con from 0.03 +++to 0.03
Heightened Def Con from 0.03 +++to 0.03
Heightened Def Con from 0.03 +++to 0.03
Heightened Def Con from 0.03 +++to 0.03
Heightened Def Con from 0.03 +++to 0.03
Heightened Def Con from 0.03 +++to 0.03
Heightened Def Con from 0.03 +++to 0.03
Heightened Def Con from 0.03 +++to 0.03
Heightened Def Con from 0.03 +++to 0.03
Heightened Def Con from 0.03 +++to 0.03
Heightened Def Con from 0.03 ++++to 0.03
Heightened Def Con from 0.03 ++++to 0.03
Heightened Def Con from 0.03 ++++to 0.03
Heightened Def Con from 0.03 ++++to 0.03
Heightened Def Con from 0.03 ++++to 0.03
Heightened Def Con from 0.03 ++++to 0.03
Heightened Def Con from 0.03 ++++to 0.03
Heightened Def Con from 0.03 ++++to 0.03
Heightened Def Con from 0.03 ++++to 0.03
Heightened Def Con from 0.03 +++++to 0.03
Heightened Def Con from 0.03 +++++to 0.03
Heightened Def Con from 0.03 +++++to 0.03
Heightened Def Con from 0.03 +++++to 0.03
Heightened Def Con from 0.03 +++++to 0.03
Heightened Def Con from 0.03 +++++to 0.03
Heightened Def Con from 0.03 +++++to 0.03
Heightened Def Con from 0.03 +++++to 0.03
Heightened Def Con from 0.03 +++++to 0.03
Heightened Def Con from 0.03 +++++to 0.03
Heightened Def Con from 0.03 +++++to 0.03
Heightened Def Con from 0.03 +++++to 0.03
Heightened Def Con from 0.03 +++++to 0.03
Heightened Def Con from 0.03 +++++to 0.03
Heightened Def Con from 0.03 +++++to 0.03
Heightened Def Con from 0.03 +++++to 0.03
Heightened Def Con from 0.03 ++++++to 0.03
Heightened Def Con from 0.03 ++++++to 0.03
Heightened Def Con from 0.03 ++++++to 0.03
Heightened Def Con from 0.03 ++++++to 0.03
Heightened Def Con from 0.03 ++++++to 0.03
Heightened Def Con from 0.03 ++++++to 0.03
Heightened Def Con from 0.03 ++++++to 0.03
Heightened Def Con from 0.03 ++++++to 0.03
Heightened Def Con from 0.03 ++++++to 0.03
Heightened Def Con from 0.03 ++++++to 0.03
Heightened Def Con from 0.03 ++++++to 0.03
Heightened Def Con from 0.03 ++++++to 0.03
Heightened Def Con from 0.03 ++++++to 0.03
Heightened Def Con from 0.03 +++++++to 0.03
Heightened Def Con from 0.03 +++++++to 0.03
Heightened Def Con from 0.03 +++++++to 0.03
Heightened Def Con from 0.03 +++++++to 0.03
Heightened Def Con from 0.03 +++++++to 0.03
Heightened Def Con from 0.03 +++++++to 0.03
Heightened Def Con from 0.03 +++++++to 0.03
Heightened Def Con from 0.03 +++++++to 0.03
Heightened Def Con from 0.03 +++++++to 0.03
Heightened Def Con from 0.03 +++++++to 0.03
Heightened Def Con from 0.03 +++++++to 0.03
Heightened Def Con from 0.03 +++++++to 0.03
Heightened Def Con from 0.03 +++++++to 0.03
Heightened Def Con from 0.03 +++++++to 0.03
Heightened Def Con from 0.03 +++++++to 0.03
Heightened Def Con from 0.03 ++++++++to 0.03
Heightened Def Con from 0.03 ++++++++to 0.03
Heightened Def Con from 0.03 ++++++++to 0.03
Heightened Def Con from 0.03 ++++++++to 0.03
Heightened Def Con from 0.03 ++++++++to 0.03
Heightened Def Con from 0.03 ++++++++to 0.03
Heightened Def Con from 0.03 ++++++++to 0.03
Heightened Def Con from 0.03 ++++++++to 0.03
Heightened Def Con from 0.03 ++++++++to 0.03
Heightened Def Con from 0.03 ++++++++to 0.03
Heightened Def Con from 0.03 ++++++++to 0.03
Heightened Def Con from 0.03 ++++++++to 0.03
Heightened Def Con from 0.03 ++++++++to 0.03
Heightened Def Con from 0.03 ++++++++to 0.03
Heightened Def Con from 0.03 ++++++++to 0.03
Heightened Def Con from 0.03 ++++++++to 0.03
Heightened Def Con from 0.03 ++++++++to 0.03
Heightened Def Con from 0.03 ++++++++to 0.03
Heightened Def Con from 0.03 ++++++++to 0.03
Heightened Def Con from 0.03 ++++++++to 0.03
Heightened Def Con from 0.03 +++++++++to 0.03
Heightened Def Con from 0.03 +++++++++to 0.03
Heightened Def Con from 0.03 +++++++++to 0.03
Heightened Def Con from 0.03 +++++++++to 0.03
Heightened Def Con from 0.03 +++++++++to 0.03
Heightened Def Con from 0.03 +++++++++to 0.03
Heightened Def Con from 0.03 +++++++++to 0.03
Heightened Def Con from 0.03 +++++++++to 0.03
Heightened Def Con from 0.03 +++++++++to 0.03
Heightened Def Con from 0.03 +++++++++to 0.03
Heightened Def Con from 0.03 +++++++++to 0.03
Heightened Def Con from 0.03 +++++++++to 0.03
Heightened Def Con from 0.03 +++++++++to 0.03
Heightened Def Con from 0.03 +++++++++to 0.03
Heightened Def Con from 0.03 +++++++++to 0.03
Heightened Def Con from 0.03 +++++++++to 0.03
Heightened Def Con from 0.03 +++++++++to 0.03
Heightened Def Con from 0.03 +++++++++to 0.03
Heightened Def Con from 0.03 +++++++++to 0.03
Heightened Def Con from 0.03 +++++++++to 0.03
Heightened Def Con from 0.03 ++++++++++++++++++++to 0.03
Heightened Def Con from 0.03 +++++++++++++++++++to 0.03
Heightened Def Con from 0.035 to 0.035
Heightened Def Con from 0.035 to 0.035
Heightened Def Con from 0.035 +to 0.035
Heightened Def Con from 0.035 +to 0.035
Heightened Def Con from 0.035 +to 0.035
Heightened Def Con from 0.035 +to 0.035
Heightened Def Con from 0.035 ++to 0.035
Heightened Def Con from 0.035 ++to 0.035
Heightened Def Con from 0.035 ++to 0.035
Heightened Def Con from 0.035 ++to 0.035
Heightened Def Con from 0.035 ++to 0.035
Heightened Def Con from 0.035 ++to 0.035
Heightened Def Con from 0.035 ++to 0.035
Heightened Def Con from 0.035 ++to 0.035
Heightened Def Con from 0.035 ++to 0.035
Heightened Def Con from 0.035 ++to 0.035
Heightened Def Con from 0.035 +++to 0.035
Heightened Def Con from 0.035 +++to 0.035
Heightened Def Con from 0.035 +++to 0.035
Heightened Def Con from 0.035 +++to 0.035
Heightened Def Con from 0.035 +++to 0.035
Heightened Def Con from 0.035 +++to 0.035
Heightened Def Con from 0.035 +++to 0.035
Heightened Def Con from 0.035 +++to 0.035
Heightened Def Con from 0.035 +++to 0.035
Heightened Def Con from 0.035 +++to 0.035
Heightened Def Con from 0.035 +++to 0.035
Heightened Def Con from 0.035 ++++to 0.035
Heightened Def Con from 0.035 ++++to 0.035
Heightened Def Con from 0.035 ++++to 0.035
Heightened Def Con from 0.035 ++++to 0.035
Heightened Def Con from 0.035 ++++to 0.035
Heightened Def Con from 0.035 ++++to 0.035
Heightened Def Con from 0.035 ++++to 0.035
Heightened Def Con from 0.035 ++++to 0.035
Heightened Def Con from 0.035 ++++to 0.035
Heightened Def Con from 0.035 ++++to 0.035
Heightened Def Con from 0.035 ++++to 0.035
Heightened Def Con from 0.035 ++++to 0.035
Heightened Def Con from 0.035 +++++to 0.035
Heightened Def Con from 0.035 +++++to 0.035
Heightened Def Con from 0.035 +++++to 0.035
Heightened Def Con from 0.035 +++++to 0.035
Heightened Def Con from 0.035 +++++to 0.035
Heightened Def Con from 0.035 +++++to 0.035
Heightened Def Con from 0.035 +++++to 0.035
Heightened Def Con from 0.035 +++++to 0.035
Heightened Def Con from 0.035 +++++to 0.035
Heightened Def Con from 0.035 +++++to 0.035
Heightened Def Con from 0.035 +++++to 0.035
Heightened Def Con from 0.035 +++++to 0.035
Heightened Def Con from 0.035 +++++to 0.035
Heightened Def Con from 0.035 +++++to 0.035
Heightened Def Con from 0.035 +++++to 0.035
Heightened Def Con from 0.035 +++++to 0.035
Heightened Def Con from 0.035 ++++++to 0.035
Heightened Def Con from 0.035 ++++++to 0.035
Heightened Def Con from 0.035 ++++++to 0.035
Heightened Def Con from 0.035 ++++++to 0.035
Heightened Def Con from 0.035 ++++++to 0.035
Heightened Def Con from 0.035 ++++++to 0.035
Heightened Def Con from 0.035 ++++++to 0.035
Heightened Def Con from 0.035 ++++++to 0.035
Heightened Def Con from 0.035 ++++++to 0.035
Heightened Def Con from 0.035 ++++++to 0.035
Heightened Def Con from 0.035 ++++++to 0.035
Heightened Def Con from 0.035 ++++++to 0.035
Heightened Def Con from 0.035 ++++++to 0.035
Heightened Def Con from 0.035 +++++++to 0.035
Heightened Def Con from 0.035 +++++++to 0.035
Heightened Def Con from 0.035 +++++++to 0.035
Heightened Def Con from 0.035 +++++++to 0.035
Heightened Def Con from 0.035 +++++++to 0.035
Heightened Def Con from 0.035 +++++++to 0.035
Heightened Def Con from 0.035 +++++++to 0.035
Heightened Def Con from 0.035 +++++++to 0.035
Heightened Def Con from 0.035 +++++++to 0.035
Heightened Def Con from 0.035 +++++++to 0.035
Heightened Def Con from 0.035 +++++++to 0.035
Heightened Def Con from 0.035 +++++++to 0.035
Heightened Def Con from 0.035 +++++++to 0.035
Heightened Def Con from 0.035 +++++++to 0.035
Heightened Def Con from 0.035 ++++++++++++++++++++to 0.035
Heightened Def Con from 0.035 ++++++++++++++++++to 0.035
Total elapsed time: 2.128 seconds.

