LTspice 24.0.11 for Windows
Circuit: * D:\eightbitalumajorproject\AluCmos\Draft5.asc
Start Time: Thu May  2 09:55:28 2024
solver = Normal
Maximum thread count: 8
tnom = 27
temp = 27
method = modified trap
Direct Newton iteration for .op point succeeded.
Heightened Def Con from 2.00092e-08 +++++++++++to 2.00092e-08
Heightened Def Con from 4.0002e-08 +++++++++++to 4.0002e-08
Heightened Def Con from 6.00092e-08 +++++++++++to 6.00092e-08
Heightened Def Con from 8.0002e-08 +++++++++++to 8.0002e-08
Heightened Def Con from 1.00009e-07 +++++++++++to 1.00009e-07
Heightened Def Con from 1.20002e-07 +++++++++++to 1.20002e-07
Heightened Def Con from 1.40009e-07 to 1.40009e-07
Total elapsed time: 0.140 seconds.

