LTspice 24.0.11 for Windows
Circuit: * D:\eightbitalumajorproject\test\Draft3.asc
Start Time: Thu May  2 10:51:14 2024
solver = Normal
Maximum thread count: 8
tnom = 27
temp = 27
method = modified trap
Warning: toxe, toxp and dtox all given and toxe != toxp + dtox; dtox ignored.
Warning: toxe, toxp and dtox all given and toxe != toxp + dtox; dtox ignored.
Direct Newton iteration for .op point succeeded.
Total elapsed time: 0.321 seconds.

