LTspice 24.0.9 for Windows
Circuit: * D:\LTSpice\twoBitTest.asc
Start Time: Tue Apr 16 12:03:01 2024
solver = Normal
Maximum thread count: 8
tnom = 27
temp = 27
method = modified trap
WARNING: Node X1:X1:X9:X1:NC_01 is floating.
WARNING: Node X1:X1:X9:X1:NC_02 is floating.
WARNING: Node X1:X1:X9:X1:NC_03 is floating.
WARNING: Node X1:X1:X9:X2:NC_01 is floating.
WARNING: Node X1:X1:X9:X2:NC_02 is floating.
WARNING: Node X1:X1:X9:X2:NC_03 is floating.
WARNING: Node X1:X1:X9:NC_01 is floating.
WARNING: Node X1:X2:X9:X1:NC_01 is floating.
WARNING: Node X1:X2:X9:X1:NC_02 is floating.
WARNING: Node X1:X2:X9:X1:NC_03 is floating.
WARNING: Node X1:X2:X9:X2:NC_01 is floating.
WARNING: Node X1:X2:X9:X2:NC_02 is floating.
WARNING: Node X1:X2:X9:X2:NC_03 is floating.
WARNING: Node X1:X2:X9:NC_01 is floating.

Instance "m:x1:x1:x1:x1:x1:1": Length shorter than recommended for a level 1 MOSFET.
Instance "m:x1:x1:x1:x1:x1:1": Width narrower than recommended for a level 1 MOSFET.
Instance "m:x1:x1:x2:x1:x1:x1:1": Length shorter than recommended for a level 1 MOSFET.
Instance "m:x1:x1:x2:x1:x1:x1:1": Width narrower than recommended for a level 1 MOSFET.
Instance "m:x1:x1:x2:x1:x1:x2:x1:1": Length shorter than recommended for a level 1 MOSFET.
Instance "m:x1:x1:x2:x1:x1:x2:x1:1": Width narrower than recommended for a level 1 MOSFET.
Instance "m:x1:x1:x2:x1:x2:x1:1": Length shorter than recommended for a level 1 MOSFET.
Instance "m:x1:x1:x2:x1:x2:x1:1": Width narrower than recommended for a level 1 MOSFET.
Instance "m:x1:x1:x2:x2:x1:x1:1": Length shorter than recommended for a level 1 MOSFET.
Instance "m:x1:x1:x2:x2:x1:x1:1": Width narrower than recommended for a level 1 MOSFET.
Instance "m:x1:x1:x2:x2:x1:x2:x1:1": Length shorter than recommended for a level 1 MOSFET.
Instance "m:x1:x1:x2:x2:x1:x2:x1:1": Width narrower than recommended for a level 1 MOSFET.
Instance "m:x1:x1:x2:x2:x2:x1:1": Length shorter than recommended for a level 1 MOSFET.
Instance "m:x1:x1:x2:x2:x2:x1:1": Width narrower than recommended for a level 1 MOSFET.
Instance "m:x1:x1:x2:x3:x1:1": Length shorter than recommended for a level 1 MOSFET.
Instance "m:x1:x1:x2:x3:x1:1": Width narrower than recommended for a level 1 MOSFET.
Instance "m:x1:x1:x3:x1:1": Length shorter than recommended for a level 1 MOSFET.
Instance "m:x1:x1:x3:x1:1": Width narrower than recommended for a level 1 MOSFET.
Instance "m:x1:x1:x4:x1:1": Length shorter than recommended for a level 1 MOSFET.
Instance "m:x1:x1:x4:x1:1": Width narrower than recommended for a level 1 MOSFET.
Instance "m:x1:x1:x5:x1:x1:x1:1": Length shorter than recommended for a level 1 MOSFET.
Instance "m:x1:x1:x5:x1:x1:x1:1": Width narrower than recommended for a level 1 MOSFET.
Instance "m:x1:x1:x5:x1:x1:x2:x1:1": Length shorter than recommended for a level 1 MOSFET.
Instance "m:x1:x1:x5:x1:x1:x2:x1:1": Width narrower than recommended for a level 1 MOSFET.
Instance "m:x1:x1:x5:x1:x2:x1:1": Length shorter than recommended for a level 1 MOSFET.
Instance "m:x1:x1:x5:x1:x2:x1:1": Width narrower than recommended for a level 1 MOSFET.
Instance "m:x1:x1:x5:x1:x3:x1:1": Length shorter than recommended for a level 1 MOSFET.
Instance "m:x1:x1:x5:x1:x3:x1:1": Width narrower than recommended for a level 1 MOSFET.
Instance "m:x1:x1:x5:x2:x1:x1:1": Length shorter than recommended for a level 1 MOSFET.
Instance "m:x1:x1:x5:x2:x1:x1:1": Width narrower than recommended for a level 1 MOSFET.
Instance "m:x1:x1:x5:x2:x1:x2:x1:1": Length shorter than recommended for a level 1 MOSFET.
Instance "m:x1:x1:x5:x2:x1:x2:x1:1": Width narrower than recommended for a level 1 MOSFET.
Instance "m:x1:x1:x5:x2:x2:x1:1": Length shorter than recommended for a level 1 MOSFET.
Instance "m:x1:x1:x5:x2:x2:x1:1": Width narrower than recommended for a level 1 MOSFET.
Instance "m:x1:x1:x5:x2:x3:x1:1": Length shorter than recommended for a level 1 MOSFET.
Instance "m:x1:x1:x5:x2:x3:x1:1": Width narrower than recommended for a level 1 MOSFET.
Instance "m:x1:x1:x5:x3:x1:1": Length shorter than recommended for a level 1 MOSFET.
Instance "m:x1:x1:x5:x3:x1:1": Width narrower than recommended for a level 1 MOSFET.
Instance "m:x1:x1:x6:x1:1": Length shorter than recommended for a level 1 MOSFET.
Instance "m:x1:x1:x6:x1:1": Width narrower than recommended for a level 1 MOSFET.
Instance "m:x1:x1:x6:x2:x1:1": Length shorter than recommended for a level 1 MOSFET.
Instance "m:x1:x1:x6:x2:x1:1": Width narrower than recommended for a level 1 MOSFET.
Instance "m:x1:x1:x7:x1:1": Length shorter than recommended for a level 1 MOSFET.
Instance "m:x1:x1:x7:x1:1": Width narrower than recommended for a level 1 MOSFET.
Instance "m:x1:x1:x7:x2:x1:1": Length shorter than recommended for a level 1 MOSFET.
Instance "m:x1:x1:x7:x2:x1:1": Width narrower than recommended for a level 1 MOSFET.
Instance "m:x1:x1:x8:x1:1": Length shorter than recommended for a level 1 MOSFET.
Instance "m:x1:x1:x8:x1:1": Width narrower than recommended for a level 1 MOSFET.
Instance "m:x1:x1:x9:x1:x1:x1:1": Length shorter than recommended for a level 1 MOSFET.
Instance "m:x1:x1:x9:x1:x1:x1:1": Width narrower than recommended for a level 1 MOSFET.
Instance "m:x1:x1:x9:x1:x2:x1:1": Length shorter than recommended for a level 1 MOSFET.
Instance "m:x1:x1:x9:x1:x2:x1:1": Width narrower than recommended for a level 1 MOSFET.
Instance "m:x1:x1:x9:x1:x3:x1:1": Length shorter than recommended for a level 1 MOSFET.
Instance "m:x1:x1:x9:x1:x3:x1:1": Width narrower than recommended for a level 1 MOSFET.
Instance "m:x1:x1:x9:x1:x4:x1:1": Length shorter than recommended for a level 1 MOSFET.
Instance "m:x1:x1:x9:x1:x4:x1:1": Width narrower than recommended for a level 1 MOSFET.
Instance "m:x1:x1:x9:x2:x1:x1:1": Length shorter than recommended for a level 1 MOSFET.
Instance "m:x1:x1:x9:x2:x1:x1:1": Width narrower than recommended for a level 1 MOSFET.
Instance "m:x1:x1:x9:x2:x2:x1:1": Length shorter than recommended for a level 1 MOSFET.
Instance "m:x1:x1:x9:x2:x2:x1:1": Width narrower than recommended for a level 1 MOSFET.
Instance "m:x1:x1:x9:x2:x3:x1:1": Length shorter than recommended for a level 1 MOSFET.
Instance "m:x1:x1:x9:x2:x3:x1:1": Width narrower than recommended for a level 1 MOSFET.
Instance "m:x1:x1:x9:x2:x4:x1:1": Length shorter than recommended for a level 1 MOSFET.
Instance "m:x1:x1:x9:x2:x4:x1:1": Width narrower than recommended for a level 1 MOSFET.
Instance "m:x1:x1:x9:x3:x1:1": Length shorter than recommended for a level 1 MOSFET.
Instance "m:x1:x1:x9:x3:x1:1": Width narrower than recommended for a level 1 MOSFET.
Instance "m:x1:x1:x9:x4:x1:1": Length shorter than recommended for a level 1 MOSFET.
Instance "m:x1:x1:x9:x4:x1:1": Width narrower than recommended for a level 1 MOSFET.
Instance "m:x1:x1:x10:x1:x1:x1:1": Length shorter than recommended for a level 1 MOSFET.
Instance "m:x1:x1:x10:x1:x1:x1:1": Width narrower than recommended for a level 1 MOSFET.
Instance "m:x1:x1:x10:x1:x2:x1:1": Length shorter than recommended for a level 1 MOSFET.
Instance "m:x1:x1:x10:x1:x2:x1:1": Width narrower than recommended for a level 1 MOSFET.
Instance "m:x1:x1:x10:x1:x3:x1:1": Length shorter than recommended for a level 1 MOSFET.
Instance "m:x1:x1:x10:x1:x3:x1:1": Width narrower than recommended for a level 1 MOSFET.
Instance "m:x1:x1:x10:x1:x4:x1:1": Length shorter than recommended for a level 1 MOSFET.
Instance "m:x1:x1:x10:x1:x4:x1:1": Width narrower than recommended for a level 1 MOSFET.
Instance "m:x1:x1:x10:x1:x5:x1:1": Length shorter than recommended for a level 1 MOSFET.
Instance "m:x1:x1:x10:x1:x5:x1:1": Width narrower than recommended for a level 1 MOSFET.
Instance "m:x1:x1:x10:x1:x6:x1:1": Length shorter than recommended for a level 1 MOSFET.
Instance "m:x1:x1:x10:x1:x6:x1:1": Width narrower than recommended for a level 1 MOSFET.
Instance "m:x1:x1:x10:x2:x1:x1:1": Length shorter than recommended for a level 1 MOSFET.
Instance "m:x1:x1:x10:x2:x1:x1:1": Width narrower than recommended for a level 1 MOSFET.
Instance "m:x1:x1:x10:x2:x2:x1:1": Length shorter than recommended for a level 1 MOSFET.
Instance "m:x1:x1:x10:x2:x2:x1:1": Width narrower than recommended for a level 1 MOSFET.
Instance "m:x1:x1:x10:x2:x3:x1:1": Length shorter than recommended for a level 1 MOSFET.
Instance "m:x1:x1:x10:x2:x3:x1:1": Width narrower than recommended for a level 1 MOSFET.
Instance "m:x1:x1:x10:x2:x4:x1:1": Length shorter than recommended for a level 1 MOSFET.
Instance "m:x1:x1:x10:x2:x4:x1:1": Width narrower than recommended for a level 1 MOSFET.
Instance "m:x1:x1:x10:x2:x5:x1:1": Length shorter than recommended for a level 1 MOSFET.
Instance "m:x1:x1:x10:x2:x5:x1:1": Width narrower than recommended for a level 1 MOSFET.
Instance "m:x1:x1:x10:x2:x6:x1:1": Length shorter than recommended for a level 1 MOSFET.
Instance "m:x1:x1:x10:x2:x6:x1:1": Width narrower than recommended for a level 1 MOSFET.
Instance "m:x1:x1:x10:x3:x1:1": Length shorter than recommended for a level 1 MOSFET.
Instance "m:x1:x1:x10:x3:x1:1": Width narrower than recommended for a level 1 MOSFET.
Instance "m:x1:x1:x11:x1:1": Length shorter than recommended for a level 1 MOSFET.
Instance "m:x1:x1:x11:x1:1": Width narrower than recommended for a level 1 MOSFET.
Instance "m:x1:x2:x1:x1:x1:1": Length shorter than recommended for a level 1 MOSFET.
Instance "m:x1:x2:x1:x1:x1:1": Width narrower than recommended for a level 1 MOSFET.
Instance "m:x1:x2:x2:x1:x1:x1:1": Length shorter than recommended for a level 1 MOSFET.
Instance "m:x1:x2:x2:x1:x1:x1:1": Width narrower than recommended for a level 1 MOSFET.
Instance "m:x1:x2:x2:x1:x1:x2:x1:1": Length shorter than recommended for a level 1 MOSFET.
Instance "m:x1:x2:x2:x1:x1:x2:x1:1": Width narrower than recommended for a level 1 MOSFET.
Instance "m:x1:x2:x2:x1:x2:x1:1": Length shorter than recommended for a level 1 MOSFET.
Instance "m:x1:x2:x2:x1:x2:x1:1": Width narrower than recommended for a level 1 MOSFET.
Instance "m:x1:x2:x2:x2:x1:x1:1": Length shorter than recommended for a level 1 MOSFET.
Instance "m:x1:x2:x2:x2:x1:x1:1": Width narrower than recommended for a level 1 MOSFET.
Instance "m:x1:x2:x2:x2:x1:x2:x1:1": Length shorter than recommended for a level 1 MOSFET.
Instance "m:x1:x2:x2:x2:x1:x2:x1:1": Width narrower than recommended for a level 1 MOSFET.
Instance "m:x1:x2:x2:x2:x2:x1:1": Length shorter than recommended for a level 1 MOSFET.
Instance "m:x1:x2:x2:x2:x2:x1:1": Width narrower than recommended for a level 1 MOSFET.
Instance "m:x1:x2:x2:x3:x1:1": Length shorter than recommended for a level 1 MOSFET.
Instance "m:x1:x2:x2:x3:x1:1": Width narrower than recommended for a level 1 MOSFET.
Instance "m:x1:x2:x3:x1:1": Length shorter than recommended for a level 1 MOSFET.
Instance "m:x1:x2:x3:x1:1": Width narrower than recommended for a level 1 MOSFET.
Instance "m:x1:x2:x4:x1:1": Length shorter than recommended for a level 1 MOSFET.
Instance "m:x1:x2:x4:x1:1": Width narrower than recommended for a level 1 MOSFET.
Instance "m:x1:x2:x5:x1:x1:x1:1": Length shorter than recommended for a level 1 MOSFET.
Instance "m:x1:x2:x5:x1:x1:x1:1": Width narrower than recommended for a level 1 MOSFET.
Instance "m:x1:x2:x5:x1:x1:x2:x1:1": Length shorter than recommended for a level 1 MOSFET.
Instance "m:x1:x2:x5:x1:x1:x2:x1:1": Width narrower than recommended for a level 1 MOSFET.
Instance "m:x1:x2:x5:x1:x2:x1:1": Length shorter than recommended for a level 1 MOSFET.
Instance "m:x1:x2:x5:x1:x2:x1:1": Width narrower than recommended for a level 1 MOSFET.
Instance "m:x1:x2:x5:x1:x3:x1:1": Length shorter than recommended for a level 1 MOSFET.
Instance "m:x1:x2:x5:x1:x3:x1:1": Width narrower than recommended for a level 1 MOSFET.
Instance "m:x1:x2:x5:x2:x1:x1:1": Length shorter than recommended for a level 1 MOSFET.
Instance "m:x1:x2:x5:x2:x1:x1:1": Width narrower than recommended for a level 1 MOSFET.
Instance "m:x1:x2:x5:x2:x1:x2:x1:1": Length shorter than recommended for a level 1 MOSFET.
Instance "m:x1:x2:x5:x2:x1:x2:x1:1": Width narrower than recommended for a level 1 MOSFET.
Instance "m:x1:x2:x5:x2:x2:x1:1": Length shorter than recommended for a level 1 MOSFET.
Instance "m:x1:x2:x5:x2:x2:x1:1": Width narrower than recommended for a level 1 MOSFET.
Instance "m:x1:x2:x5:x2:x3:x1:1": Length shorter than recommended for a level 1 MOSFET.
Instance "m:x1:x2:x5:x2:x3:x1:1": Width narrower than recommended for a level 1 MOSFET.
Instance "m:x1:x2:x5:x3:x1:1": Length shorter than recommended for a level 1 MOSFET.
Instance "m:x1:x2:x5:x3:x1:1": Width narrower than recommended for a level 1 MOSFET.
Instance "m:x1:x2:x6:x1:1": Length shorter than recommended for a level 1 MOSFET.
Instance "m:x1:x2:x6:x1:1": Width narrower than recommended for a level 1 MOSFET.
Instance "m:x1:x2:x6:x2:x1:1": Length shorter than recommended for a level 1 MOSFET.
Instance "m:x1:x2:x6:x2:x1:1": Width narrower than recommended for a level 1 MOSFET.
Instance "m:x1:x2:x7:x1:1": Length shorter than recommended for a level 1 MOSFET.
Instance "m:x1:x2:x7:x1:1": Width narrower than recommended for a level 1 MOSFET.
Instance "m:x1:x2:x7:x2:x1:1": Length shorter than recommended for a level 1 MOSFET.
Instance "m:x1:x2:x7:x2:x1:1": Width narrower than recommended for a level 1 MOSFET.
Instance "m:x1:x2:x8:x1:1": Length shorter than recommended for a level 1 MOSFET.
Instance "m:x1:x2:x8:x1:1": Width narrower than recommended for a level 1 MOSFET.
Instance "m:x1:x2:x9:x1:x1:x1:1": Length shorter than recommended for a level 1 MOSFET.
Instance "m:x1:x2:x9:x1:x1:x1:1": Width narrower than recommended for a level 1 MOSFET.
Instance "m:x1:x2:x9:x1:x2:x1:1": Length shorter than recommended for a level 1 MOSFET.
Instance "m:x1:x2:x9:x1:x2:x1:1": Width narrower than recommended for a level 1 MOSFET.
Instance "m:x1:x2:x9:x1:x3:x1:1": Length shorter than recommended for a level 1 MOSFET.
Instance "m:x1:x2:x9:x1:x3:x1:1": Width narrower than recommended for a level 1 MOSFET.
Instance "m:x1:x2:x9:x1:x4:x1:1": Length shorter than recommended for a level 1 MOSFET.
Instance "m:x1:x2:x9:x1:x4:x1:1": Width narrower than recommended for a level 1 MOSFET.
Instance "m:x1:x2:x9:x2:x1:x1:1": Length shorter than recommended for a level 1 MOSFET.
Instance "m:x1:x2:x9:x2:x1:x1:1": Width narrower than recommended for a level 1 MOSFET.
Instance "m:x1:x2:x9:x2:x2:x1:1": Length shorter than recommended for a level 1 MOSFET.
Instance "m:x1:x2:x9:x2:x2:x1:1": Width narrower than recommended for a level 1 MOSFET.
Instance "m:x1:x2:x9:x2:x3:x1:1": Length shorter than recommended for a level 1 MOSFET.
Instance "m:x1:x2:x9:x2:x3:x1:1": Width narrower than recommended for a level 1 MOSFET.
Instance "m:x1:x2:x9:x2:x4:x1:1": Length shorter than recommended for a level 1 MOSFET.
Instance "m:x1:x2:x9:x2:x4:x1:1": Width narrower than recommended for a level 1 MOSFET.
Instance "m:x1:x2:x9:x3:x1:1": Length shorter than recommended for a level 1 MOSFET.
Instance "m:x1:x2:x9:x3:x1:1": Width narrower than recommended for a level 1 MOSFET.
Instance "m:x1:x2:x9:x4:x1:1": Length shorter than recommended for a level 1 MOSFET.
Instance "m:x1:x2:x9:x4:x1:1": Width narrower than recommended for a level 1 MOSFET.
Instance "m:x1:x2:x10:x1:x1:x1:1": Length shorter than recommended for a level 1 MOSFET.
Instance "m:x1:x2:x10:x1:x1:x1:1": Width narrower than recommended for a level 1 MOSFET.
Instance "m:x1:x2:x10:x1:x2:x1:1": Length shorter than recommended for a level 1 MOSFET.
Instance "m:x1:x2:x10:x1:x2:x1:1": Width narrower than recommended for a level 1 MOSFET.
Instance "m:x1:x2:x10:x1:x3:x1:1": Length shorter than recommended for a level 1 MOSFET.
Instance "m:x1:x2:x10:x1:x3:x1:1": Width narrower than recommended for a level 1 MOSFET.
Instance "m:x1:x2:x10:x1:x4:x1:1": Length shorter than recommended for a level 1 MOSFET.
Instance "m:x1:x2:x10:x1:x4:x1:1": Width narrower than recommended for a level 1 MOSFET.
Instance "m:x1:x2:x10:x1:x5:x1:1": Length shorter than recommended for a level 1 MOSFET.
Instance "m:x1:x2:x10:x1:x5:x1:1": Width narrower than recommended for a level 1 MOSFET.
Instance "m:x1:x2:x10:x1:x6:x1:1": Length shorter than recommended for a level 1 MOSFET.
Instance "m:x1:x2:x10:x1:x6:x1:1": Width narrower than recommended for a level 1 MOSFET.
Instance "m:x1:x2:x10:x2:x1:x1:1": Length shorter than recommended for a level 1 MOSFET.
Instance "m:x1:x2:x10:x2:x1:x1:1": Width narrower than recommended for a level 1 MOSFET.
Instance "m:x1:x2:x10:x2:x2:x1:1": Length shorter than recommended for a level 1 MOSFET.
Instance "m:x1:x2:x10:x2:x2:x1:1": Width narrower than recommended for a level 1 MOSFET.
Instance "m:x1:x2:x10:x2:x3:x1:1": Length shorter than recommended for a level 1 MOSFET.
Instance "m:x1:x2:x10:x2:x3:x1:1": Width narrower than recommended for a level 1 MOSFET.
Instance "m:x1:x2:x10:x2:x4:x1:1": Length shorter than recommended for a level 1 MOSFET.
Instance "m:x1:x2:x10:x2:x4:x1:1": Width narrower than recommended for a level 1 MOSFET.
Instance "m:x1:x2:x10:x2:x5:x1:1": Length shorter than recommended for a level 1 MOSFET.
Instance "m:x1:x2:x10:x2:x5:x1:1": Width narrower than recommended for a level 1 MOSFET.
Instance "m:x1:x2:x10:x2:x6:x1:1": Length shorter than recommended for a level 1 MOSFET.
Instance "m:x1:x2:x10:x2:x6:x1:1": Width narrower than recommended for a level 1 MOSFET.
Instance "m:x1:x2:x10:x3:x1:1": Length shorter than recommended for a level 1 MOSFET.
Instance "m:x1:x2:x10:x3:x1:1": Width narrower than recommended for a level 1 MOSFET.
Instance "m:x1:x2:x11:x1:1": Length shorter than recommended for a level 1 MOSFET.
Instance "m:x1:x2:x11:x1:1": Width narrower than recommended for a level 1 MOSFET.
Instance "m:x1:x1:x1:x1:x1:2": Length shorter than recommended for a level 1 MOSFET.
Instance "m:x1:x1:x1:x1:x1:2": Width narrower than recommended for a level 1 MOSFET.
Instance "m:x1:x1:x2:x1:x1:x1:2": Length shorter than recommended for a level 1 MOSFET.
Instance "m:x1:x1:x2:x1:x1:x1:2": Width narrower than recommended for a level 1 MOSFET.
Instance "m:x1:x1:x2:x1:x1:x2:x1:2": Length shorter than recommended for a level 1 MOSFET.
Instance "m:x1:x1:x2:x1:x1:x2:x1:2": Width narrower than recommended for a level 1 MOSFET.
Instance "m:x1:x1:x2:x1:x2:x1:2": Length shorter than recommended for a level 1 MOSFET.
Instance "m:x1:x1:x2:x1:x2:x1:2": Width narrower than recommended for a level 1 MOSFET.
Instance "m:x1:x1:x2:x2:x1:x1:2": Length shorter than recommended for a level 1 MOSFET.
Instance "m:x1:x1:x2:x2:x1:x1:2": Width narrower than recommended for a level 1 MOSFET.
Instance "m:x1:x1:x2:x2:x1:x2:x1:2": Length shorter than recommended for a level 1 MOSFET.
Instance "m:x1:x1:x2:x2:x1:x2:x1:2": Width narrower than recommended for a level 1 MOSFET.
Instance "m:x1:x1:x2:x2:x2:x1:2": Length shorter than recommended for a level 1 MOSFET.
Instance "m:x1:x1:x2:x2:x2:x1:2": Width narrower than recommended for a level 1 MOSFET.
Instance "m:x1:x1:x2:x3:x1:2": Length shorter than recommended for a level 1 MOSFET.
Instance "m:x1:x1:x2:x3:x1:2": Width narrower than recommended for a level 1 MOSFET.
Instance "m:x1:x1:x3:x1:2": Length shorter than recommended for a level 1 MOSFET.
Instance "m:x1:x1:x3:x1:2": Width narrower than recommended for a level 1 MOSFET.
Instance "m:x1:x1:x4:x1:2": Length shorter than recommended for a level 1 MOSFET.
Instance "m:x1:x1:x4:x1:2": Width narrower than recommended for a level 1 MOSFET.
Instance "m:x1:x1:x5:x1:x1:x1:2": Length shorter than recommended for a level 1 MOSFET.
Instance "m:x1:x1:x5:x1:x1:x1:2": Width narrower than recommended for a level 1 MOSFET.
Instance "m:x1:x1:x5:x1:x1:x2:x1:2": Length shorter than recommended for a level 1 MOSFET.
Instance "m:x1:x1:x5:x1:x1:x2:x1:2": Width narrower than recommended for a level 1 MOSFET.
Instance "m:x1:x1:x5:x1:x2:x1:2": Length shorter than recommended for a level 1 MOSFET.
Instance "m:x1:x1:x5:x1:x2:x1:2": Width narrower than recommended for a level 1 MOSFET.
Instance "m:x1:x1:x5:x1:x3:x1:2": Length shorter than recommended for a level 1 MOSFET.
Instance "m:x1:x1:x5:x1:x3:x1:2": Width narrower than recommended for a level 1 MOSFET.
Instance "m:x1:x1:x5:x2:x1:x1:2": Length shorter than recommended for a level 1 MOSFET.
Instance "m:x1:x1:x5:x2:x1:x1:2": Width narrower than recommended for a level 1 MOSFET.
Instance "m:x1:x1:x5:x2:x1:x2:x1:2": Length shorter than recommended for a level 1 MOSFET.
Instance "m:x1:x1:x5:x2:x1:x2:x1:2": Width narrower than recommended for a level 1 MOSFET.
Instance "m:x1:x1:x5:x2:x2:x1:2": Length shorter than recommended for a level 1 MOSFET.
Instance "m:x1:x1:x5:x2:x2:x1:2": Width narrower than recommended for a level 1 MOSFET.
Instance "m:x1:x1:x5:x2:x3:x1:2": Length shorter than recommended for a level 1 MOSFET.
Instance "m:x1:x1:x5:x2:x3:x1:2": Width narrower than recommended for a level 1 MOSFET.
Instance "m:x1:x1:x5:x3:x1:2": Length shorter than recommended for a level 1 MOSFET.
Instance "m:x1:x1:x5:x3:x1:2": Width narrower than recommended for a level 1 MOSFET.
Instance "m:x1:x1:x6:x1:2": Length shorter than recommended for a level 1 MOSFET.
Instance "m:x1:x1:x6:x1:2": Width narrower than recommended for a level 1 MOSFET.
Instance "m:x1:x1:x6:x2:x1:2": Length shorter than recommended for a level 1 MOSFET.
Instance "m:x1:x1:x6:x2:x1:2": Width narrower than recommended for a level 1 MOSFET.
Instance "m:x1:x1:x7:x1:2": Length shorter than recommended for a level 1 MOSFET.
Instance "m:x1:x1:x7:x1:2": Width narrower than recommended for a level 1 MOSFET.
Instance "m:x1:x1:x7:x2:x1:2": Length shorter than recommended for a level 1 MOSFET.
Instance "m:x1:x1:x7:x2:x1:2": Width narrower than recommended for a level 1 MOSFET.
Instance "m:x1:x1:x8:x1:2": Length shorter than recommended for a level 1 MOSFET.
Instance "m:x1:x1:x8:x1:2": Width narrower than recommended for a level 1 MOSFET.
Instance "m:x1:x1:x9:x1:x1:x1:2": Length shorter than recommended for a level 1 MOSFET.
Instance "m:x1:x1:x9:x1:x1:x1:2": Width narrower than recommended for a level 1 MOSFET.
Instance "m:x1:x1:x9:x1:x2:x1:2": Length shorter than recommended for a level 1 MOSFET.
Instance "m:x1:x1:x9:x1:x2:x1:2": Width narrower than recommended for a level 1 MOSFET.
Instance "m:x1:x1:x9:x1:x3:x1:2": Length shorter than recommended for a level 1 MOSFET.
Instance "m:x1:x1:x9:x1:x3:x1:2": Width narrower than recommended for a level 1 MOSFET.
Instance "m:x1:x1:x9:x1:x4:x1:2": Length shorter than recommended for a level 1 MOSFET.
Instance "m:x1:x1:x9:x1:x4:x1:2": Width narrower than recommended for a level 1 MOSFET.
Instance "m:x1:x1:x9:x2:x1:x1:2": Length shorter than recommended for a level 1 MOSFET.
Instance "m:x1:x1:x9:x2:x1:x1:2": Width narrower than recommended for a level 1 MOSFET.
Instance "m:x1:x1:x9:x2:x2:x1:2": Length shorter than recommended for a level 1 MOSFET.
Instance "m:x1:x1:x9:x2:x2:x1:2": Width narrower than recommended for a level 1 MOSFET.
Instance "m:x1:x1:x9:x2:x3:x1:2": Length shorter than recommended for a level 1 MOSFET.
Instance "m:x1:x1:x9:x2:x3:x1:2": Width narrower than recommended for a level 1 MOSFET.
Instance "m:x1:x1:x9:x2:x4:x1:2": Length shorter than recommended for a level 1 MOSFET.
Instance "m:x1:x1:x9:x2:x4:x1:2": Width narrower than recommended for a level 1 MOSFET.
Instance "m:x1:x1:x9:x3:x1:2": Length shorter than recommended for a level 1 MOSFET.
Instance "m:x1:x1:x9:x3:x1:2": Width narrower than recommended for a level 1 MOSFET.
Instance "m:x1:x1:x9:x4:x1:2": Length shorter than recommended for a level 1 MOSFET.
Instance "m:x1:x1:x9:x4:x1:2": Width narrower than recommended for a level 1 MOSFET.
Instance "m:x1:x1:x10:x1:x1:x1:2": Length shorter than recommended for a level 1 MOSFET.
Instance "m:x1:x1:x10:x1:x1:x1:2": Width narrower than recommended for a level 1 MOSFET.
Instance "m:x1:x1:x10:x1:x2:x1:2": Length shorter than recommended for a level 1 MOSFET.
Instance "m:x1:x1:x10:x1:x2:x1:2": Width narrower than recommended for a level 1 MOSFET.
Instance "m:x1:x1:x10:x1:x3:x1:2": Length shorter than recommended for a level 1 MOSFET.
Instance "m:x1:x1:x10:x1:x3:x1:2": Width narrower than recommended for a level 1 MOSFET.
Instance "m:x1:x1:x10:x1:x4:x1:2": Length shorter than recommended for a level 1 MOSFET.
Instance "m:x1:x1:x10:x1:x4:x1:2": Width narrower than recommended for a level 1 MOSFET.
Instance "m:x1:x1:x10:x1:x5:x1:2": Length shorter than recommended for a level 1 MOSFET.
Instance "m:x1:x1:x10:x1:x5:x1:2": Width narrower than recommended for a level 1 MOSFET.
Instance "m:x1:x1:x10:x1:x6:x1:2": Length shorter than recommended for a level 1 MOSFET.
Instance "m:x1:x1:x10:x1:x6:x1:2": Width narrower than recommended for a level 1 MOSFET.
Instance "m:x1:x1:x10:x2:x1:x1:2": Length shorter than recommended for a level 1 MOSFET.
Instance "m:x1:x1:x10:x2:x1:x1:2": Width narrower than recommended for a level 1 MOSFET.
Instance "m:x1:x1:x10:x2:x2:x1:2": Length shorter than recommended for a level 1 MOSFET.
Instance "m:x1:x1:x10:x2:x2:x1:2": Width narrower than recommended for a level 1 MOSFET.
Instance "m:x1:x1:x10:x2:x3:x1:2": Length shorter than recommended for a level 1 MOSFET.
Instance "m:x1:x1:x10:x2:x3:x1:2": Width narrower than recommended for a level 1 MOSFET.
Instance "m:x1:x1:x10:x2:x4:x1:2": Length shorter than recommended for a level 1 MOSFET.
Instance "m:x1:x1:x10:x2:x4:x1:2": Width narrower than recommended for a level 1 MOSFET.
Instance "m:x1:x1:x10:x2:x5:x1:2": Length shorter than recommended for a level 1 MOSFET.
Instance "m:x1:x1:x10:x2:x5:x1:2": Width narrower than recommended for a level 1 MOSFET.
Instance "m:x1:x1:x10:x2:x6:x1:2": Length shorter than recommended for a level 1 MOSFET.
Instance "m:x1:x1:x10:x2:x6:x1:2": Width narrower than recommended for a level 1 MOSFET.
Instance "m:x1:x1:x10:x3:x1:2": Length shorter than recommended for a level 1 MOSFET.
Instance "m:x1:x1:x10:x3:x1:2": Width narrower than recommended for a level 1 MOSFET.
Instance "m:x1:x1:x11:x1:2": Length shorter than recommended for a level 1 MOSFET.
Instance "m:x1:x1:x11:x1:2": Width narrower than recommended for a level 1 MOSFET.
Instance "m:x1:x2:x1:x1:x1:2": Length shorter than recommended for a level 1 MOSFET.
Instance "m:x1:x2:x1:x1:x1:2": Width narrower than recommended for a level 1 MOSFET.
Instance "m:x1:x2:x2:x1:x1:x1:2": Length shorter than recommended for a level 1 MOSFET.
Instance "m:x1:x2:x2:x1:x1:x1:2": Width narrower than recommended for a level 1 MOSFET.
Instance "m:x1:x2:x2:x1:x1:x2:x1:2": Length shorter than recommended for a level 1 MOSFET.
Instance "m:x1:x2:x2:x1:x1:x2:x1:2": Width narrower than recommended for a level 1 MOSFET.
Instance "m:x1:x2:x2:x1:x2:x1:2": Length shorter than recommended for a level 1 MOSFET.
Instance "m:x1:x2:x2:x1:x2:x1:2": Width narrower than recommended for a level 1 MOSFET.
Instance "m:x1:x2:x2:x2:x1:x1:2": Length shorter than recommended for a level 1 MOSFET.
Instance "m:x1:x2:x2:x2:x1:x1:2": Width narrower than recommended for a level 1 MOSFET.
Instance "m:x1:x2:x2:x2:x1:x2:x1:2": Length shorter than recommended for a level 1 MOSFET.
Instance "m:x1:x2:x2:x2:x1:x2:x1:2": Width narrower than recommended for a level 1 MOSFET.
Instance "m:x1:x2:x2:x2:x2:x1:2": Length shorter than recommended for a level 1 MOSFET.
Instance "m:x1:x2:x2:x2:x2:x1:2": Width narrower than recommended for a level 1 MOSFET.
Instance "m:x1:x2:x2:x3:x1:2": Length shorter than recommended for a level 1 MOSFET.
Instance "m:x1:x2:x2:x3:x1:2": Width narrower than recommended for a level 1 MOSFET.
Instance "m:x1:x2:x3:x1:2": Length shorter than recommended for a level 1 MOSFET.
Instance "m:x1:x2:x3:x1:2": Width narrower than recommended for a level 1 MOSFET.
Instance "m:x1:x2:x4:x1:2": Length shorter than recommended for a level 1 MOSFET.
Instance "m:x1:x2:x4:x1:2": Width narrower than recommended for a level 1 MOSFET.
Instance "m:x1:x2:x5:x1:x1:x1:2": Length shorter than recommended for a level 1 MOSFET.
Instance "m:x1:x2:x5:x1:x1:x1:2": Width narrower than recommended for a level 1 MOSFET.
Instance "m:x1:x2:x5:x1:x1:x2:x1:2": Length shorter than recommended for a level 1 MOSFET.
Instance "m:x1:x2:x5:x1:x1:x2:x1:2": Width narrower than recommended for a level 1 MOSFET.
Instance "m:x1:x2:x5:x1:x2:x1:2": Length shorter than recommended for a level 1 MOSFET.
Instance "m:x1:x2:x5:x1:x2:x1:2": Width narrower than recommended for a level 1 MOSFET.
Instance "m:x1:x2:x5:x1:x3:x1:2": Length shorter than recommended for a level 1 MOSFET.
Instance "m:x1:x2:x5:x1:x3:x1:2": Width narrower than recommended for a level 1 MOSFET.
Instance "m:x1:x2:x5:x2:x1:x1:2": Length shorter than recommended for a level 1 MOSFET.
Instance "m:x1:x2:x5:x2:x1:x1:2": Width narrower than recommended for a level 1 MOSFET.
Instance "m:x1:x2:x5:x2:x1:x2:x1:2": Length shorter than recommended for a level 1 MOSFET.
Instance "m:x1:x2:x5:x2:x1:x2:x1:2": Width narrower than recommended for a level 1 MOSFET.
Instance "m:x1:x2:x5:x2:x2:x1:2": Length shorter than recommended for a level 1 MOSFET.
Instance "m:x1:x2:x5:x2:x2:x1:2": Width narrower than recommended for a level 1 MOSFET.
Instance "m:x1:x2:x5:x2:x3:x1:2": Length shorter than recommended for a level 1 MOSFET.
Instance "m:x1:x2:x5:x2:x3:x1:2": Width narrower than recommended for a level 1 MOSFET.
Instance "m:x1:x2:x5:x3:x1:2": Length shorter than recommended for a level 1 MOSFET.
Instance "m:x1:x2:x5:x3:x1:2": Width narrower than recommended for a level 1 MOSFET.
Instance "m:x1:x2:x6:x1:2": Length shorter than recommended for a level 1 MOSFET.
Instance "m:x1:x2:x6:x1:2": Width narrower than recommended for a level 1 MOSFET.
Instance "m:x1:x2:x6:x2:x1:2": Length shorter than recommended for a level 1 MOSFET.
Instance "m:x1:x2:x6:x2:x1:2": Width narrower than recommended for a level 1 MOSFET.
Instance "m:x1:x2:x7:x1:2": Length shorter than recommended for a level 1 MOSFET.
Instance "m:x1:x2:x7:x1:2": Width narrower than recommended for a level 1 MOSFET.
Instance "m:x1:x2:x7:x2:x1:2": Length shorter than recommended for a level 1 MOSFET.
Instance "m:x1:x2:x7:x2:x1:2": Width narrower than recommended for a level 1 MOSFET.
Instance "m:x1:x2:x8:x1:2": Length shorter than recommended for a level 1 MOSFET.
Instance "m:x1:x2:x8:x1:2": Width narrower than recommended for a level 1 MOSFET.
Instance "m:x1:x2:x9:x1:x1:x1:2": Length shorter than recommended for a level 1 MOSFET.
Instance "m:x1:x2:x9:x1:x1:x1:2": Width narrower than recommended for a level 1 MOSFET.
Instance "m:x1:x2:x9:x1:x2:x1:2": Length shorter than recommended for a level 1 MOSFET.
Instance "m:x1:x2:x9:x1:x2:x1:2": Width narrower than recommended for a level 1 MOSFET.
Instance "m:x1:x2:x9:x1:x3:x1:2": Length shorter than recommended for a level 1 MOSFET.
Instance "m:x1:x2:x9:x1:x3:x1:2": Width narrower than recommended for a level 1 MOSFET.
Instance "m:x1:x2:x9:x1:x4:x1:2": Length shorter than recommended for a level 1 MOSFET.
Instance "m:x1:x2:x9:x1:x4:x1:2": Width narrower than recommended for a level 1 MOSFET.
Instance "m:x1:x2:x9:x2:x1:x1:2": Length shorter than recommended for a level 1 MOSFET.
Instance "m:x1:x2:x9:x2:x1:x1:2": Width narrower than recommended for a level 1 MOSFET.
Instance "m:x1:x2:x9:x2:x2:x1:2": Length shorter than recommended for a level 1 MOSFET.
Instance "m:x1:x2:x9:x2:x2:x1:2": Width narrower than recommended for a level 1 MOSFET.
Instance "m:x1:x2:x9:x2:x3:x1:2": Length shorter than recommended for a level 1 MOSFET.
Instance "m:x1:x2:x9:x2:x3:x1:2": Width narrower than recommended for a level 1 MOSFET.
Instance "m:x1:x2:x9:x2:x4:x1:2": Length shorter than recommended for a level 1 MOSFET.
Instance "m:x1:x2:x9:x2:x4:x1:2": Width narrower than recommended for a level 1 MOSFET.
Instance "m:x1:x2:x9:x3:x1:2": Length shorter than recommended for a level 1 MOSFET.
Instance "m:x1:x2:x9:x3:x1:2": Width narrower than recommended for a level 1 MOSFET.
Instance "m:x1:x2:x9:x4:x1:2": Length shorter than recommended for a level 1 MOSFET.
Instance "m:x1:x2:x9:x4:x1:2": Width narrower than recommended for a level 1 MOSFET.
Instance "m:x1:x2:x10:x1:x1:x1:2": Length shorter than recommended for a level 1 MOSFET.
Instance "m:x1:x2:x10:x1:x1:x1:2": Width narrower than recommended for a level 1 MOSFET.
Instance "m:x1:x2:x10:x1:x2:x1:2": Length shorter than recommended for a level 1 MOSFET.
Instance "m:x1:x2:x10:x1:x2:x1:2": Width narrower than recommended for a level 1 MOSFET.
Instance "m:x1:x2:x10:x1:x3:x1:2": Length shorter than recommended for a level 1 MOSFET.
Instance "m:x1:x2:x10:x1:x3:x1:2": Width narrower than recommended for a level 1 MOSFET.
Instance "m:x1:x2:x10:x1:x4:x1:2": Length shorter than recommended for a level 1 MOSFET.
Instance "m:x1:x2:x10:x1:x4:x1:2": Width narrower than recommended for a level 1 MOSFET.
Instance "m:x1:x2:x10:x1:x5:x1:2": Length shorter than recommended for a level 1 MOSFET.
Instance "m:x1:x2:x10:x1:x5:x1:2": Width narrower than recommended for a level 1 MOSFET.
Instance "m:x1:x2:x10:x1:x6:x1:2": Length shorter than recommended for a level 1 MOSFET.
Instance "m:x1:x2:x10:x1:x6:x1:2": Width narrower than recommended for a level 1 MOSFET.
Instance "m:x1:x2:x10:x2:x1:x1:2": Length shorter than recommended for a level 1 MOSFET.
Instance "m:x1:x2:x10:x2:x1:x1:2": Width narrower than recommended for a level 1 MOSFET.
Instance "m:x1:x2:x10:x2:x2:x1:2": Length shorter than recommended for a level 1 MOSFET.
Instance "m:x1:x2:x10:x2:x2:x1:2": Width narrower than recommended for a level 1 MOSFET.
Instance "m:x1:x2:x10:x2:x3:x1:2": Length shorter than recommended for a level 1 MOSFET.
Instance "m:x1:x2:x10:x2:x3:x1:2": Width narrower than recommended for a level 1 MOSFET.
Instance "m:x1:x2:x10:x2:x4:x1:2": Length shorter than recommended for a level 1 MOSFET.
Instance "m:x1:x2:x10:x2:x4:x1:2": Width narrower than recommended for a level 1 MOSFET.
Instance "m:x1:x2:x10:x2:x5:x1:2": Length shorter than recommended for a level 1 MOSFET.
Instance "m:x1:x2:x10:x2:x5:x1:2": Width narrower than recommended for a level 1 MOSFET.
Instance "m:x1:x2:x10:x2:x6:x1:2": Length shorter than recommended for a level 1 MOSFET.
Instance "m:x1:x2:x10:x2:x6:x1:2": Width narrower than recommended for a level 1 MOSFET.
Instance "m:x1:x2:x10:x3:x1:2": Length shorter than recommended for a level 1 MOSFET.
Instance "m:x1:x2:x10:x3:x1:2": Width narrower than recommended for a level 1 MOSFET.
Instance "m:x1:x2:x11:x1:2": Length shorter than recommended for a level 1 MOSFET.
Instance "m:x1:x2:x11:x1:2": Width narrower than recommended for a level 1 MOSFET.
Direct Newton iteration for .op point succeeded.
Total elapsed time: 0.234 seconds.

